Circuit: * C:\Users\giorg\OneDrive\Documenti\GIORGIO\SCUOLA\UNIVERSITA\TESI TRIENNALE\simulazione_preamp\BGA614\Draft1.asc

Direct Newton iteration for .op point succeeded.

Date: Wed Jun 12 15:42:41 2024
Total elapsed time: 0.070 seconds.

tnom = 27
temp = 27
method = modified trap
totiter = 4255
traniter = 4229
tranpoints = 1864
accept = 1532
rejected = 332
matrix size = 14
fillins = 7
solver = Normal
Avg thread counts: 1.3/1.8/1.8/1.3
Matrix Compiler1:      49 opcodes  0.3/[0.2]/0.2
Matrix Compiler2: off  [0.2]/0.2/0.2

