Circuit: * C:\Users\giorg\OneDrive\Documenti\GIORGIO\SCUOLA\UNIVERSITA\TESI TRIENNALE\simulazione_preamp\Draft1.asc

Direct Newton iteration for .op point succeeded.

Date: Wed Jun 12 22:01:33 2024
Total elapsed time: 0.034 seconds.

tnom = 27
temp = 27
method = modified trap
totiter = 2085
traniter = 2082
tranpoints = 1042
accept = 1042
rejected = 0
matrix size = 3
fillins = 0
solver = Normal
Avg thread counts: 1.7/2.3/2.3/1.7
Matrix Compiler1: off  [0.0]/0.1/0.1
Matrix Compiler2: 175 bytes object code size  0.1/0.1/[0.1]

