Circuit: * C:\Users\giorg\OneDrive\Documenti\GIORGIO\SCUOLA\UNIVERSITA\TESI TRIENNALE\simulazione_preamp\simulazione_preamp_Venezia_Giorgio.asc

Direct Newton iteration for .op point succeeded.

Date: Tue Sep  3 00:58:00 2024
Total elapsed time: 0.062 seconds.

tnom = 27
temp = 27
method = trap
totiter = 12
traniter = 0
tranpoints = 0
accept = 0
rejected = 0
matrix size = 21
fillins = 6
solver = Normal
Avg thread counts: 16.0/0.0/16.0/6.5
Matrix Compiler1:      91 opcodes
Matrix Compiler2: 1.73 KB object code size
