Circuit: * C:\Users\giorg\OneDrive\Documenti\GIORGIO\SCUOLA\UNIVERSITA\TESI TRIENNALE\prova_simulazione_preamp_con_bjt\prova_simulazione_preamp_con_bjt.asc

Direct Newton iteration for .op point succeeded.

Date: Wed Jun 12 11:41:38 2024
Total elapsed time: 0.030 seconds.

tnom = 27
temp = 27
method = trap
totiter = 8
traniter = 0
tranpoints = 0
accept = 0
rejected = 0
matrix size = 21
fillins = 6
solver = Normal
Avg thread counts: 16.0/0.0/16.0/6.6
Matrix Compiler1:      91 opcodes
Matrix Compiler2: 1.73 KB object code size
